# generated using pymatgen
data_Fe13Si2(SbO14)2
_symmetry_space_group_name_H-M   'P 1'
_cell_length_a   5.62367184
_cell_length_b   8.81191945
_cell_length_c   11.49202588
_cell_angle_alpha   87.19746410
_cell_angle_beta   75.95579729
_cell_angle_gamma   78.51700298
_symmetry_Int_Tables_number   1
_chemical_formula_structural   Fe13Si2(SbO14)2
_chemical_formula_sum   'Fe13 Si2 Sb2 O28'
_cell_volume   541.41010066
_cell_formula_units_Z   1
loop_
 _symmetry_equiv_pos_site_id
 _symmetry_equiv_pos_as_xyz
  1  'x, y, z'
loop_
 _atom_site_type_symbol
 _atom_site_label
 _atom_site_symmetry_multiplicity
 _atom_site_fract_x
 _atom_site_fract_y
 _atom_site_fract_z
 _atom_site_occupancy
  Fe  Fe1  1  0.965436  0.635675  0.679448  1
  Fe  Fe2  1  0.647887  0.355008  0.146484  1
  Fe  Fe3  1  0.360811  0.361359  0.682424  1
  Fe  Fe4  1  0.031954  0.363190  0.323336  1
  Fe  Fe5  1  0.353082  0.642187  0.854063  1
  Fe  Fe6  1  0.284090  0.995181  0.436912  1
  Fe  Fe7  1  0.206106  0.643730  0.152752  1
  Fe  Fe8  1  0.002641  0.999371  0.000497  1
  Fe  Fe9  1  0.422042  0.001065  0.149614  1
  Fe  Fe10  1  0.793359  0.354353  0.848728  1
  Fe  Fe11  1  0.637833  0.637075  0.315664  1
  Fe  Fe12  1  0.578640  0.998712  0.852289  1
  Fe  Fe13  1  0.719174  0.000612  0.563494  1
  Si  Si14  1  0.233160  0.313701  0.001304  1
  Si  Si15  1  0.767629  0.685489  0.999039  1
  Sb  Sb16  1  0.854939  0.001310  0.289050  1
  Sb  Sb17  1  0.145927  0.996759  0.711226  1
  O  O18  1  0.701714  0.406735  0.290926  1
  O  O19  1  0.213646  0.350782  0.417972  1
  O  O20  1  0.930322  0.356448  0.007789  1
  O  O21  1  0.303608  0.123087  0.999309  1
  O  O22  1  0.796317  0.647585  0.579155  1
  O  O23  1  0.298043  0.590956  0.709597  1
  O  O24  1  0.008312  0.099705  0.577293  1
  O  O25  1  0.993662  0.898335  0.422796  1
  O  O26  1  0.696342  0.876582  0.002177  1
  O  O27  1  0.114736  0.886278  0.154744  1
  O  O28  1  0.307239  0.378180  0.119662  1
  O  O29  1  0.987908  0.585851  0.298233  1
  O  O30  1  0.420147  0.896218  0.577689  1
  O  O31  1  0.721325  0.124807  0.156067  1
  O  O32  1  0.595693  0.614637  0.120122  1
  O  O33  1  0.070106  0.642524  0.992793  1
  O  O34  1  0.281513  0.873572  0.843864  1
  O  O35  1  0.885623  0.111747  0.845748  1
  O  O36  1  0.581300  0.100783  0.423291  1
  O  O37  1  0.118834  0.135205  0.288665  1
  O  O38  1  0.881859  0.863278  0.711362  1
  O  O39  1  0.404590  0.385390  0.880535  1
  O  O40  1  0.411964  0.130229  0.713003  1
  O  O41  1  0.628767  0.346885  0.579403  1
  O  O42  1  0.693976  0.620944  0.880665  1
  O  O43  1  0.588507  0.868153  0.286768  1
  O  O44  1  0.009987  0.412259  0.702678  1
  O  O45  1  0.370277  0.651997  0.418880  1
